Version 4
SHEET 1 1160 680
WIRE 480 32 0 32
WIRE 624 32 560 32
WIRE 672 32 624 32
WIRE 832 32 736 32
WIRE 912 32 832 32
WIRE 1040 32 912 32
WIRE 624 64 624 32
WIRE 832 64 832 32
WIRE 912 64 912 32
WIRE 0 112 0 32
WIRE 624 160 624 128
WIRE 832 160 832 128
WIRE 880 160 832 160
WIRE 912 160 912 144
WIRE 912 160 880 160
WIRE 880 192 880 160
WIRE 0 240 0 192
FLAG 0 240 0
FLAG 624 160 0
FLAG 880 192 0
FLAG 1040 32 Humi
IOPIN 1040 32 Out
SYMBOL voltage 0 96 R0
WINDOW 123 0 0 Left 0
WINDOW 39 0 0 Left 0
SYMATTR InstName V1
SYMATTR Value PULSE(0 3.3 0 0 0 0.6u 1.2u 200000)
SYMBOL res 576 16 R90
WINDOW 0 0 56 VBottom 2
WINDOW 3 32 56 VTop 2
SYMATTR InstName R1
SYMATTR Value 10000
SYMBOL cap 608 64 R0
SYMATTR InstName C1
SYMATTR Value {C}
SYMBOL diode 672 48 R270
WINDOW 0 32 32 VTop 2
WINDOW 3 0 32 VBottom 2
SYMATTR InstName D1
SYMBOL cap 816 64 R0
SYMATTR InstName C2
SYMATTR Value 1µ
SYMBOL res 896 48 R0
SYMATTR InstName R2
SYMATTR Value 1000000
TEXT -32 264 Left 2 !.tran 0 0.1 0 0.01
TEXT -32 304 Left 2 !.step oct param C 0.1f 0.1p 2
TEXT -32 344 Left 2 !.meas HV MAX V(Humi)
